7
Properties=species:S:1:pos:R:3 pbc="F F F"
O        9.76033373       9.30923701       9.58840994
C       10.64825740       9.70600832       8.75479511
N       10.70014339      12.15715944      10.47750006
N       10.12185476      11.65581743      11.27185245
C        8.82675489       9.40307474      10.47058257
H       10.62569335       8.93756917       7.95122699
H        9.20337649       8.79302241      11.32112600
