7
Properties=species:S:1:pos:R:3 pbc="F F F"
H       -1.66777519      -0.90791299       1.01956685
H        1.86679275      -1.52225778       0.05469714
C        1.50867988      -0.48887798      -0.05152468
O        0.18031562      -0.84039644       0.12571073
N       -0.76765904       1.85471564      -0.33747672
C       -1.11536658      -0.98716441      -0.32186664
N        0.33780623       2.30308479      -0.66548578
